26
XYZ file generated by Avogadro.
N      0.57763   -2.80543   -0.98674
C      1.05368   -1.43280   -1.28182
C      2.57801   -1.46095   -1.29137
O      3.34340   -1.79166   -0.40458
O      3.14693   -1.04396   -2.44492
C      0.58838   -0.35638   -0.28894
H      1.18963    0.56297   -0.44121
H      0.79522   -0.67557    0.75379
C     -0.88696   -0.02596   -0.45552
H     -1.50760   -0.92947   -0.28586
H     -1.08809    0.28177   -1.50278
C     -1.29359    1.08058    0.51351
H     -0.69496    1.99673    0.31926
H     -1.06366    0.77627    1.55494
N     -2.75660    1.33777    0.40942
H     -3.00661    1.51307   -0.54282
C     -3.25537    2.38564    1.28348
N     -3.76524    3.44048    0.72405
H     -4.18617    4.11561    1.31206
N     -3.12198    2.17439    2.69906
H     -3.00301    1.21420    2.93864
H     -3.87946    2.57736    3.20679
H     -0.42019   -2.82010   -1.01842
H      0.88594   -3.09306   -0.08136
H      0.67463   -1.18150   -2.30576
H      0.97078   -3.60915   -1.61145
