163
Generated by Script
N     -5.19237   -3.86804    0.66849
N      8.28999   -0.02100    0.92204
C     -4.27820   -2.67924   -4.18673
C     -4.35639   -2.62748    0.71243
C      6.92734    0.58805    0.83749
C     -4.71007   -2.04920   -2.98002
C     -4.72276   -1.99448   -0.50050
C     -2.91883   -3.08841   -4.18485
C     -4.67776   -2.10123   -5.43934
C     -3.00772   -3.11794    0.75524
C     -4.80461   -2.02949    1.92935
C      7.20164    1.98091    0.80260
C      6.39733    0.08266   -0.39253
C      6.35896    0.10345    2.04712
C     -4.20585   -2.49362   -1.72788
C     -2.95033   -3.12678   -1.71434
C     -2.25373   -3.28160   -2.93404
C     -5.66263   -1.00666   -3.00524
C     -2.30268   -3.34224   -0.46345
C     -5.66636   -0.94107   -0.54575
C     -4.13348   -2.57689   -6.66670
C     -2.21030   -3.34236   -5.39312
C     -5.62281   -1.03763   -5.46475
C     -2.32884   -3.33997    1.98659
C     -5.74106   -0.95463    1.91391
C     -4.23815   -2.40590    3.18136
C      7.43471    2.65627   -0.42360
C      5.52654   -1.04068   -0.39842
C      7.34297    2.70093    2.02509
C      5.48805   -1.01976    2.05123
C      6.80634    0.63810   -1.63502
C      6.69463    0.71616    3.27338
C     -6.02513   -0.36803   -1.78781
C     -2.86816   -3.20872   -6.64306
C     -6.00396   -0.41134   -4.24738
C     -6.08360   -0.34939    0.67163
C     -2.99778   -3.08106    3.20527
C      4.98649   -1.51148    0.83138
C      7.28989    1.96589   -1.65652
C      7.17806    2.04407    3.26188
C     -0.85674   -3.50459   -2.91415
C     -0.89926   -3.53438   -0.45388
C     -5.94537   -0.43011   -6.71681
C     -0.81974   -3.59620   -5.36289
C     -0.92313   -3.55182    2.00645
C      7.47335    4.08105   -0.45178
C     -6.11349   -0.31721    3.13124
C      7.43353    4.11203    2.00773
C     -4.77479   -1.90932    4.39854
C      5.01517   -1.53374   -1.62837
C      4.93686   -1.48184    3.28078
C      6.44209    0.01184   -2.86145
C      6.30921    0.13322    4.50652
C     -0.17110   -3.53427   -1.67523
C     -6.65317    0.90534   -1.81210
C     -0.12900   -3.58497   -4.12445
C     -0.20490   -3.55292    0.78499
C     -6.60342    0.87557   -4.27150
C     -6.70292    0.93512    0.64729
C      7.44352    4.80042    0.76865
C      3.85244   -2.37472    0.81889
C      7.49330    2.63750   -2.89303
C     -2.33767   -3.31529    4.44655
C     -5.77337   -0.90259    4.37323
C      5.55884   -1.09272   -2.85773
C      7.33173    2.74546    4.48476
C      5.43830   -0.98999    4.51063
C     -0.09067   -3.68664   -6.58304
C     -6.54496    0.85694   -6.73094
C      7.49327    4.77065   -1.69075
C     -6.81193    1.57322   -3.05297
C     -6.83189    1.60661   -0.59326
C     -0.21751   -3.57922    3.23558
C      3.86746   -2.36828   -1.63140
C      7.43228    4.84494    3.22832
C      3.82616   -2.37232    3.27893
C     -6.73281    0.96730    3.10690
C     -6.76218    1.54345   -5.51237
C      1.22598   -3.34413   -1.65074
C     -4.23328   -2.32906    5.65081
C      6.79532    0.61102   -4.09520
C      3.22871   -2.68991   -0.40476
C      7.54295    4.05370   -2.91096
C      6.66474    0.74834    5.73299
C      1.20344   -3.37163    0.79974
C      3.20135   -2.67771    2.04514
C     -6.88164    1.63638    1.86614
C      1.28296   -3.43346   -4.10927
C     -0.93076   -3.53708    4.46655
C      1.91231   -3.21271   -0.42392
C      7.29872    1.94122   -4.11649
C     -2.99159   -3.01427    5.66486
C      7.46320    4.15146    4.46796
C      7.14817    2.07626    5.72149
C      1.94088   -3.23484   -2.87368
C      7.51203    4.74718   -4.15061
C      1.88604   -3.21030    2.03612
C      1.31767   -3.50535   -6.56830
C      5.04868   -1.59570   -4.08755
C      3.25620   -2.70224   -2.86466
C      1.19083   -3.39793    3.25032
C     -6.13587   -0.26396    5.59066
C      4.90817   -1.45958    5.74053
C     -7.03270    2.97668   -3.07402
C      1.98793   -3.32537   -5.33231
C     -7.05267    3.01007   -0.61430
C      3.17520   -2.67543    4.49518
C      7.50101    4.72010   -6.61078
C     -7.00281    2.94450   -5.53363
C      3.92324   -2.44768   -4.09008
C      7.53193    4.02661   -5.37113
C     -6.91274    1.67849    4.32560
C     -4.78736   -1.85474    6.86806
C      6.45213   -0.02275   -5.32127
C      7.46243    2.60800   -5.35342
C      6.25947    0.16299    6.96592
C      1.85988   -3.20803    4.48616
C     -7.09249    3.04105    1.84520
C     -0.23145   -3.59546    5.69601
C      5.59115   -1.14476   -5.31705
C      7.45202    4.88316    5.68845
C      3.79760   -2.35019    5.72868
C     -5.78594   -0.84801    6.84275
C     -6.77263    0.99828    5.56640
C     -7.06253    3.69605   -1.85360
C      3.31558   -2.81142   -5.32290
C     -7.04377    3.67258   -4.31345
C      5.40961   -0.96773    6.97038
C      7.31176    2.77885    6.94448
C     -7.01387    3.64039   -6.77306
C     -7.09363    3.73816    0.60587
C      7.54197    3.99201   -7.83095
C      1.16334   -3.38560    5.71022
C      7.27778    1.91292   -6.57676
C      7.45316    4.18605    6.92778
C      6.79543    0.57521   -6.55512
C      3.95795   -2.51957   -6.54911
C     -7.11366    3.08437    4.30477
C     -7.12352    3.77034    3.06547
C      5.09332   -1.66638   -6.54647
C      3.15764   -2.66189    6.95518
C     -6.94328    5.08488   -4.33071
C     -6.95212    5.10956   -1.87075
C      7.45141    2.58092   -7.81359
C     -6.94383    1.72060    6.78507
C     -6.92331    5.05149   -6.79042
C      1.84232   -3.19449    6.94616
C     -6.95211    5.14523    0.57917
C     -6.70888    5.75019   -5.56676
C     -6.73878    5.78237   -3.10716
C     -6.76855    5.81443   -0.65755
C     -7.15462    3.81245    5.52494
C     -7.15468    3.12527    6.76412
C     -6.98321    5.18734    3.03864
C     -6.80957    5.85533    1.80181
C     -7.02315    5.21845    5.50814
C     -6.85060    5.89623    4.26117
H     -5.62359   -4.05444   -0.23445
H     -5.97678   -3.85307    1.31887
H     -4.73445   -4.75584    0.91571
H      8.94582    0.50030    1.50328
H      8.78783   -0.14467    0.03956
H      8.31065   -0.97000    1.30476
